variable      mytemp equal  1400

# -------------------- FORCE FIELDS ----------------------
pair_style buck/coul/long 10.0 10.0

read_data	NPT_relaxed_1400.data
  orthogonal box = (0.193471 0.223403 0.204127) to (77.1075 89.0368 81.3544)
  reading atoms ...
  58365 atoms
  reading velocities ...
  58365 velocities

pair_coeff    * * 1e-30 1e-30 0.0
pair_coeff    1 2 1204.18 0.3165   0.0
pair_coeff    1 1 9547.96 0.21916  32.0

kspace_style    pppm 0.0001

## Define group
group oxygen type 1
35019 atoms in group oxygen
group chromium type 2
23346 atoms in group chromium

## --------------------- NVT  --------------------
compute allmsd all displace/atom

#dump          2 all custom 25000  dump/dump id type xu yu zu c_allmsd[1] c_allmsd[2] c_allmsd[3] c_allmsd[4]
#dump          1 all xyz 25000 xyz/all.xyz
#dump_modify   1 element O Cr

compute   Omsd oxygen msd com yes
compute   Crmsd chromium msd com yes
variable  OMSDX equal "c_Omsd[1]"
variable  OMSDY equal "c_Omsd[2]"
variable  OMSDZ equal "c_Omsd[3]"
variable  OMSDAll equal "c_Omsd[4]"

variable  CrMSDX equal "c_Crmsd[1]"
variable  CrMSDY equal "c_Crmsd[2]"
variable  CrMSDZ equal "c_Crmsd[3]"
variable  CrMSDAll equal "c_Crmsd[4]"

thermo          1000
thermo_style    custom step pe ke press lx ly lz temp c_Omsd[1]  c_Omsd[2]  c_Omsd[3]  c_Omsd[4]  c_Crmsd[1]  c_Crmsd[2]  c_Crmsd[3]  c_Crmsd[4]

fix          3 all nvt temp 1400 1400 0.01

run      1000000
PPPM initialization ...
  G vector (1/distance) = 0.309148
  grid = 72 80 75
  stencil order = 5
  estimated absolute RMS force accuracy = 0.00177248
  estimated relative force accuracy = 0.000123092
  3d grid and FFT values/proc = 58144 28800
Step PotEng KinEng Press Lx Ly Lz Temp Omsd[1] Omsd[2] Omsd[3] Omsd[4] Crmsd[1] Crmsd[2] Crmsd[3] Crmsd[4]
0   -1798257.5    10461.772    221.47485    76.914057    88.813394    81.150246    1386.7417            0 2.1185507e-29            0 2.1185507e-29            0            0            0            0
Averages over the last 501 of 1001 rows, steps 500000 to 1000000:
PotEng KinEng Press Lx Ly Lz Temp Omsd[1] Omsd[2] Omsd[3] Omsd[4] Crmsd[1] Crmsd[2] Crmsd[3] Crmsd[4]
-1.79825e+06 10564 331.473 76.9141 88.8134 81.1502 1400.29 0.0840235 0.0808676 0.112417 0.277308 0.0217565 0.0208093 0.03913 0.0816957
Loop time of 117463 on 15 procs for 1000000 steps with 58365 atoms

Pair  time (%) = 86917.8 (73.9959)
Kspce time (%) = 27102.6 (23.0733)
Neigh time (%) = 1096.85 (0.933786)
Comm  time (%) = 1669.6 (1.42139)
Outpt time (%) = 1.39595 (0.00118842)
Other time (%) = 674.718 (0.574409)
