variable      mytemp equal  1400

# -------------------- FORCE FIELDS ----------------------
pair_style buck/coul/long 10.0 10.0

read_data	NPT_relaxed_1400.data
  orthogonal box = (0.20181 0.233032 0.212925) to (77.0992 89.0272 81.3456)
  reading atoms ...
  58275 atoms
  reading velocities ...
  58275 velocities

pair_coeff    * * 1e-30 1e-30 0.0
pair_coeff    1 2 1204.18 0.3165   0.0
pair_coeff    1 1 9547.96 0.21916  32.0

kspace_style    pppm 0.0001

## Define group
group oxygen type 1
34965 atoms in group oxygen
group chromium type 2
23310 atoms in group chromium

## --------------------- NVT  --------------------
compute allmsd all displace/atom

#dump          2 all custom 25000  dump/dump id type xu yu zu c_allmsd[1] c_allmsd[2] c_allmsd[3] c_allmsd[4]
#dump          1 all xyz 25000 xyz/all.xyz
#dump_modify   1 element O Cr

compute   Omsd oxygen msd com yes
compute   Crmsd chromium msd com yes
variable  OMSDX equal "c_Omsd[1]"
variable  OMSDY equal "c_Omsd[2]"
variable  OMSDZ equal "c_Omsd[3]"
variable  OMSDAll equal "c_Omsd[4]"

variable  CrMSDX equal "c_Crmsd[1]"
variable  CrMSDY equal "c_Crmsd[2]"
variable  CrMSDZ equal "c_Crmsd[3]"
variable  CrMSDAll equal "c_Crmsd[4]"

thermo          1000
thermo_style    custom step pe ke press lx ly lz temp c_Omsd[1]  c_Omsd[2]  c_Omsd[3]  c_Omsd[4]  c_Crmsd[1]  c_Crmsd[2]  c_Crmsd[3]  c_Crmsd[4]

fix          3 all nvt temp 1400 1400 0.01

run      1000000
PPPM initialization ...
  G vector (1/distance) = 0.309164
  grid = 72 80 75
  stencil order = 5
  estimated absolute RMS force accuracy = 0.00176997
  estimated relative force accuracy = 0.000122918
  3d grid and FFT values/proc = 123082 64800
Step PotEng KinEng Press Lx Ly Lz Temp Omsd[1] Omsd[2] Omsd[3] Omsd[4] Crmsd[1] Crmsd[2] Crmsd[3] Crmsd[4]
0   -1795543.2    10606.418    720.06126     76.89738    88.794136     81.13265    1408.0863 5.0757113e-29            0            0 5.0757113e-29 2.0194839e-28 2.1191153e-29            0 2.2313954e-28
Averages over the last 501 of 1001 rows, steps 500000 to 1000000:
PotEng KinEng Press Lx Ly Lz Temp Omsd[1] Omsd[2] Omsd[3] Omsd[4] Crmsd[1] Crmsd[2] Crmsd[3] Crmsd[4]
-1.79551e+06 10546.7 612.143 76.8974 88.7941 81.1326 1400.16 0.0296107 0.0293361 0.034569 0.0935158 0.0224542 0.0239545 0.0274765 0.0738852
Loop time of 221298 on 7 procs for 1000000 steps with 58275 atoms

Pair  time (%) = 178268 (80.5556)
Kspce time (%) = 39099.8 (17.6684)
Neigh time (%) = 2133.28 (0.963986)
Comm  time (%) = 1281.53 (0.579094)
Outpt time (%) = 0.417577 (0.000188694)
Other time (%) = 515.173 (0.232796)
