variable      mytemp equal  2000

# -------------------- FORCE FIELDS ----------------------
pair_style buck/coul/long 10.0 10.0

read_data	NPT_relaxed_2000.data
  orthogonal box = (0.0462487 0.0534038 0.048796) to (77.2548 89.2068 81.5097)
  reading atoms ...
  58365 atoms
  reading velocities ...
  58365 velocities

pair_coeff    * * 1e-30 1e-30 0.0
pair_coeff    1 2 1204.18 0.3165   0.0
pair_coeff    1 1 9547.96 0.21916  32.0

kspace_style    pppm 0.0001

## Define group
group oxygen type 1
35019 atoms in group oxygen
group chromium type 2
23346 atoms in group chromium

## --------------------- NVT  --------------------
compute allmsd all displace/atom

#dump          2 all custom 25000  dump/dump id type xu yu zu c_allmsd[1] c_allmsd[2] c_allmsd[3] c_allmsd[4]
#dump          1 all xyz 25000 xyz/all.xyz
#dump_modify   1 element O Cr

compute   Omsd oxygen msd com yes
compute   Crmsd chromium msd com yes
variable  OMSDX equal "c_Omsd[1]"
variable  OMSDY equal "c_Omsd[2]"
variable  OMSDZ equal "c_Omsd[3]"
variable  OMSDAll equal "c_Omsd[4]"

variable  CrMSDX equal "c_Crmsd[1]"
variable  CrMSDY equal "c_Crmsd[2]"
variable  CrMSDZ equal "c_Crmsd[3]"
variable  CrMSDAll equal "c_Crmsd[4]"

thermo          1000
thermo_style    custom step pe ke press lx ly lz temp c_Omsd[1]  c_Omsd[2]  c_Omsd[3]  c_Omsd[4]  c_Crmsd[1]  c_Crmsd[2]  c_Crmsd[3]  c_Crmsd[4]

fix          3 all nvt temp 2000 2000 0.01

run      1000000
PPPM initialization ...
  G vector (1/distance) = 0.308788
  grid = 72 80 75
  stencil order = 5
  estimated absolute RMS force accuracy = 0.00179588
  estimated relative force accuracy = 0.000124717
  3d grid and FFT values/proc = 58144 28800
Step PotEng KinEng Press Lx Ly Lz Temp Omsd[1] Omsd[2] Omsd[3] Omsd[4] Crmsd[1] Crmsd[2] Crmsd[3] Crmsd[4]
0   -1793333.7    15067.115    1008.8867    77.208503    89.153392    81.460908    1997.1947            0 1.3130228e-28 5.0983045e-29 1.8228533e-28            0            0 5.1001787e-29 5.1001787e-29
Averages over the last 501 of 1001 rows, steps 500000 to 1000000:
PotEng KinEng Press Lx Ly Lz Temp Omsd[1] Omsd[2] Omsd[3] Omsd[4] Crmsd[1] Crmsd[2] Crmsd[3] Crmsd[4]
-1.79326e+06 15092 1526.79 77.2085 89.1534 81.4609 2000.49 0.254173 0.256386 0.366552 0.877111 0.0331198 0.0331082 0.0909803 0.157208
Loop time of 135342 on 15 procs for 1000000 steps with 58365 atoms

Pair  time (%) = 87218.6 (64.4432)
Kspce time (%) = 41303.2 (30.5177)
Neigh time (%) = 2219.85 (1.64018)
Comm  time (%) = 3148.27 (2.32616)
Outpt time (%) = 4.6909 (0.00346596)
Other time (%) = 1447.2 (1.06929)
