variable      mytemp equal  1800

# -------------------- FORCE FIELDS ----------------------
pair_style buck/coul/long 10.0 10.0

read_data	NPT_relaxed_1800.data
  orthogonal box = (0.0851417 0.0983139 0.089831) to (77.2159 89.1619 81.4687)
  reading atoms ...
  58365 atoms
  reading velocities ...
  58365 velocities

pair_coeff    * * 1e-30 1e-30 0.0
pair_coeff    1 2 1204.18 0.3165   0.0
pair_coeff    1 1 9547.96 0.21916  32.0

kspace_style    pppm 0.0001

## Define group
group oxygen type 1
35019 atoms in group oxygen
group chromium type 2
23346 atoms in group chromium

## --------------------- NVT  --------------------
compute allmsd all displace/atom

#dump          2 all custom 25000  dump/dump id type xu yu zu c_allmsd[1] c_allmsd[2] c_allmsd[3] c_allmsd[4]
#dump          1 all xyz 25000 xyz/all.xyz
#dump_modify   1 element O Cr

compute   Omsd oxygen msd com yes
compute   Crmsd chromium msd com yes
variable  OMSDX equal "c_Omsd[1]"
variable  OMSDY equal "c_Omsd[2]"
variable  OMSDZ equal "c_Omsd[3]"
variable  OMSDAll equal "c_Omsd[4]"

variable  CrMSDX equal "c_Crmsd[1]"
variable  CrMSDY equal "c_Crmsd[2]"
variable  CrMSDZ equal "c_Crmsd[3]"
variable  CrMSDAll equal "c_Crmsd[4]"

thermo          1000
thermo_style    custom step pe ke press lx ly lz temp c_Omsd[1]  c_Omsd[2]  c_Omsd[3]  c_Omsd[4]  c_Crmsd[1]  c_Crmsd[2]  c_Crmsd[3]  c_Crmsd[4]

fix          3 all nvt temp 1800 1800 0.01

run      1000000
PPPM initialization ...
  G vector (1/distance) = 0.308857
  grid = 72 80 75
  stencil order = 5
  estimated absolute RMS force accuracy = 0.00179063
  estimated relative force accuracy = 0.000124353
  3d grid and FFT values/proc = 58144 28800
Step PotEng KinEng Press Lx Ly Lz Temp Omsd[1] Omsd[2] Omsd[3] Omsd[4] Crmsd[1] Crmsd[2] Crmsd[3] Crmsd[4]
0   -1794860.6    13529.808   -1317.6966    77.130717    89.063572    81.378838    1793.4198            0 2.1133966e-29 5.1027738e-29 7.2161704e-29            0            0            0            0
Averages over the last 501 of 1001 rows, steps 500000 to 1000000:
PotEng KinEng Press Lx Ly Lz Temp Omsd[1] Omsd[2] Omsd[3] Omsd[4] Crmsd[1] Crmsd[2] Crmsd[3] Crmsd[4]
-1.79492e+06 13580.6 -1141.79 77.1307 89.0636 81.3788 1800.15 0.20626 0.209718 0.290941 0.706919 0.0282383 0.0290911 0.0696158 0.126945
Loop time of 135352 on 15 procs for 1000000 steps with 58365 atoms

Pair  time (%) = 87146.9 (64.3853)
Kspce time (%) = 41420.1 (30.6017)
Neigh time (%) = 1967.71 (1.45377)
Comm  time (%) = 3237.92 (2.39222)
Outpt time (%) = 4.27136 (0.00315573)
Other time (%) = 1575.33 (1.16387)
