variable      mytemp equal  1800

# -------------------- FORCE FIELDS ----------------------
pair_style buck/coul/long 10.0 10.0

read_data	NPT_relaxed_1800.data
  orthogonal box = (0.0982245 0.113421 0.103634) to (77.2028 89.1468 81.4549)
  reading atoms ...
  58275 atoms
  reading velocities ...
  58275 velocities

pair_coeff    * * 1e-30 1e-30 0.0
pair_coeff    1 2 1204.18 0.3165   0.0
pair_coeff    1 1 9547.96 0.21916  32.0

kspace_style    pppm 0.0001

## Define group
group oxygen type 1
34965 atoms in group oxygen
group chromium type 2
23310 atoms in group chromium

## --------------------- NVT  --------------------
compute allmsd all displace/atom

#dump          2 all custom 25000  dump/dump id type xu yu zu c_allmsd[1] c_allmsd[2] c_allmsd[3] c_allmsd[4]
#dump          1 all xyz 25000 xyz/all.xyz
#dump_modify   1 element O Cr

compute   Omsd oxygen msd com yes
compute   Crmsd chromium msd com yes
variable  OMSDX equal "c_Omsd[1]"
variable  OMSDY equal "c_Omsd[2]"
variable  OMSDZ equal "c_Omsd[3]"
variable  OMSDAll equal "c_Omsd[4]"

variable  CrMSDX equal "c_Crmsd[1]"
variable  CrMSDY equal "c_Crmsd[2]"
variable  CrMSDZ equal "c_Crmsd[3]"
variable  CrMSDAll equal "c_Crmsd[4]"

thermo          1000
thermo_style    custom step pe ke press lx ly lz temp c_Omsd[1]  c_Omsd[2]  c_Omsd[3]  c_Omsd[4]  c_Crmsd[1]  c_Crmsd[2]  c_Crmsd[3]  c_Crmsd[4]

fix          3 all nvt temp 1800 1800 0.01

run      1000000
PPPM initialization ...
  G vector (1/distance) = 0.308879
  grid = 72 80 75
  stencil order = 5
  estimated absolute RMS force accuracy = 0.00178753
  estimated relative force accuracy = 0.000124137
  3d grid and FFT values/proc = 123082 64800
Step PotEng KinEng Press Lx Ly Lz Temp Omsd[1] Omsd[2] Omsd[3] Omsd[4] Crmsd[1] Crmsd[2] Crmsd[3] Crmsd[4]
0   -1792135.6    13574.009   -146.22313    77.104551    89.033358    81.351231    1802.0576 5.070802e-29 5.0559295e-29  5.10459e-29 1.5231321e-28 4.5466761e-28 1.1950346e-29 5.0941937e-29 5.175599e-28
Averages over the last 501 of 1001 rows, steps 500000 to 1000000:
PotEng KinEng Press Lx Ly Lz Temp Omsd[1] Omsd[2] Omsd[3] Omsd[4] Crmsd[1] Crmsd[2] Crmsd[3] Crmsd[4]
-1.79222e+06 13562.3 -208.411 77.1046 89.0334 81.3512 1800.5 0.0480943 0.0486969 0.055584 0.152375 0.0330406 0.0336665 0.0405949 0.107302
Loop time of 228425 on 7 procs for 1000000 steps with 58275 atoms

Pair  time (%) = 179374 (78.5264)
Kspce time (%) = 43311.2 (18.9608)
Neigh time (%) = 4036.31 (1.76701)
Comm  time (%) = 1220.34 (0.534241)
Outpt time (%) = 0.423592 (0.00018544)
Other time (%) = 482.936 (0.21142)
