LAMMPS (28 Jun 2014)
# ------------------ INITIALIZATION -------------------
units		metal           #check!!!!!
boundary	p p p
dimension	3
atom_style    charge
shell		mkdir  xyz
shell         mkdir  dump

variable      mytemp equal  1600

# -------------------- FORCE FIELDS ----------------------
pair_style buck/coul/long 10.0 10.0

read_data	NPT_relaxed_1600.data
  orthogonal box = (0.146235 0.168859 0.154289) to (77.1548 89.0913 81.4042)
  reading atoms ...
  58275 atoms
  reading velocities ...
  58275 velocities

pair_coeff    * * 1e-30 1e-30 0.0
pair_coeff    1 2 1204.18 0.3165   0.0
pair_coeff    1 1 9547.96 0.21916  32.0

kspace_style    pppm 0.0001

## Define group
group oxygen type 1
34965 atoms in group oxygen
group chromium type 2
23310 atoms in group chromium

## --------------------- NVT  --------------------
compute allmsd all displace/atom

#dump          2 all custom 25000  dump/dump id type xu yu zu c_allmsd[1] c_allmsd[2] c_allmsd[3] c_allmsd[4]
#dump          1 all xyz 25000 xyz/all.xyz
#dump_modify   1 element O Cr

compute   Omsd oxygen msd com yes
compute   Crmsd chromium msd com yes
variable  OMSDX equal "c_Omsd[1]"
variable  OMSDY equal "c_Omsd[2]"
variable  OMSDZ equal "c_Omsd[3]"
variable  OMSDAll equal "c_Omsd[4]"

variable  CrMSDX equal "c_Crmsd[1]"
variable  CrMSDY equal "c_Crmsd[2]"
variable  CrMSDZ equal "c_Crmsd[3]"
variable  CrMSDAll equal "c_Crmsd[4]"

thermo          1000
thermo_style    custom step pe ke press lx ly lz temp c_Omsd[1]  c_Omsd[2]  c_Omsd[3]  c_Omsd[4]  c_Crmsd[1]  c_Crmsd[2]  c_Crmsd[3]  c_Crmsd[4]

fix          3 all nvt temp 1600 1600 0.01

run      1000000
PPPM initialization ...
  G vector (1/distance) = 0.308964
  grid = 72 80 75
  stencil order = 5
  estimated absolute RMS force accuracy = 0.00178109
  estimated relative force accuracy = 0.00012369
  3d grid and FFT values/proc = 58144 28800
Step PotEng KinEng Press Lx Ly Lz Temp Omsd[1] Omsd[2] Omsd[3] Omsd[4] Crmsd[1] Crmsd[2] Crmsd[3] Crmsd[4]
0   -1793870.4    12065.043   -822.12661     77.00853    88.922483    81.249922    1601.7303 5.0835086e-29 8.343908e-29 5.1100769e-29 1.8537494e-28 5.0814149e-29 1.2061348e-29 5.0896453e-29 1.1377195e-28
Averages over the last 501 of 1001 rows, steps 500000 to 1000000:
PotEng KinEng Press Lx Ly Lz Temp Omsd[1] Omsd[2] Omsd[3] Omsd[4] Crmsd[1] Crmsd[2] Crmsd[3] Crmsd[4]
-1.79387e+06 12049.6 -739.739 77.0085 88.9225 81.2499 1599.67 0.0342227 0.0355314 0.0424745 0.112229 0.02756 0.0285254 0.0336287 0.0897141
Loop time of 119551 on 15 procs for 1000000 steps with 58275 atoms

Pair  time (%) = 86393.3 (72.2645)
Kspce time (%) = 28870.1 (24.1487)
Neigh time (%) = 1653.62 (1.38319)
Comm  time (%) = 1863.78 (1.55898)
Outpt time (%) = 1.84291 (0.00154152)
Other time (%) = 768.809 (0.643078)
