variable      mytemp equal  1600

# -------------------- FORCE FIELDS ----------------------
pair_style buck/coul/long 10.0 10.0

read_data	NPT_relaxed_1600.data
  orthogonal box = (0.13402 0.154754 0.141401) to (77.167 89.1054 81.4171)
  reading atoms ...
  58365 atoms
  reading velocities ...
  58365 velocities

pair_coeff    * * 1e-30 1e-30 0.0
pair_coeff    1 2 1204.18 0.3165   0.0
pair_coeff    1 1 9547.96 0.21916  32.0

kspace_style    pppm 0.0001

## Define group
group oxygen type 1
35019 atoms in group oxygen
group chromium type 2
23346 atoms in group chromium

## --------------------- NVT  --------------------
compute allmsd all displace/atom

#dump          2 all custom 25000  dump/dump id type xu yu zu c_allmsd[1] c_allmsd[2] c_allmsd[3] c_allmsd[4]
#dump          1 all xyz 25000 xyz/all.xyz
#dump_modify   1 element O Cr

compute   Omsd oxygen msd com yes
compute   Crmsd chromium msd com yes
variable  OMSDX equal "c_Omsd[1]"
variable  OMSDY equal "c_Omsd[2]"
variable  OMSDZ equal "c_Omsd[3]"
variable  OMSDAll equal "c_Omsd[4]"

variable  CrMSDX equal "c_Crmsd[1]"
variable  CrMSDY equal "c_Crmsd[2]"
variable  CrMSDZ equal "c_Crmsd[3]"
variable  CrMSDAll equal "c_Crmsd[4]"

thermo          1000
thermo_style    custom step pe ke press lx ly lz temp c_Omsd[1]  c_Omsd[2]  c_Omsd[3]  c_Omsd[4]  c_Crmsd[1]  c_Crmsd[2]  c_Crmsd[3]  c_Crmsd[4]

fix          3 all nvt temp 1600 1600 0.01

run      1000000
PPPM initialization ...
  G vector (1/distance) = 0.308944
  grid = 72 80 75
  stencil order = 5
  estimated absolute RMS force accuracy = 0.00178406
  estimated relative force accuracy = 0.000123896
  3d grid and FFT values/proc = 58144 28800
Step PotEng KinEng Press Lx Ly Lz Temp Omsd[1] Omsd[2] Omsd[3] Omsd[4] Crmsd[1] Crmsd[2] Crmsd[3] Crmsd[4]
0   -1796557.2     12103.96    -1787.096    77.032961    88.950692    81.275698     1604.419 5.0825899e-29 2.111198e-29 5.1034946e-29 1.2297283e-28 5.0813644e-29            0 5.0962861e-29 1.0177651e-28
Averages over the last 501 of 1001 rows, steps 500000 to 1000000:
PotEng KinEng Press Lx Ly Lz Temp Omsd[1] Omsd[2] Omsd[3] Omsd[4] Crmsd[1] Crmsd[2] Crmsd[3] Crmsd[4]
-1.79658e+06 12067.4 -1732.9 77.033 88.9507 81.2757 1599.57 0.127961 0.123775 0.175427 0.427163 0.0250874 0.0241546 0.0554722 0.104714
Loop time of 119055 on 15 procs for 1000000 steps with 58365 atoms

Pair  time (%) = 86643.4 (72.776)
Kspce time (%) = 28290 (23.7621)
Neigh time (%) = 1650.56 (1.38639)
Comm  time (%) = 1766.28 (1.48359)
Outpt time (%) = 1.71763 (0.00144272)
Other time (%) = 702.979 (0.590466)
