variable      mytemp equal  2000

# -------------------- FORCE FIELDS ----------------------
pair_style buck/coul/long 10.0 10.0

read_data	NPT_relaxed_2000.data
  orthogonal box = (0.034204 0.0394957 0.0360878) to (77.2668 89.2207 81.5224)
  reading atoms ...
  58275 atoms
  reading velocities ...
  58275 velocities

pair_coeff    * * 1e-30 1e-30 0.0
pair_coeff    1 2 1204.18 0.3165   0.0
pair_coeff    1 1 9547.96 0.21916  32.0

kspace_style    pppm 0.0001

## Define group
group oxygen type 1
34965 atoms in group oxygen
group chromium type 2
23310 atoms in group chromium

## --------------------- NVT  --------------------
compute allmsd all displace/atom

#dump          2 all custom 25000  dump/dump id type xu yu zu c_allmsd[1] c_allmsd[2] c_allmsd[3] c_allmsd[4]
#dump          1 all xyz 25000 xyz/all.xyz
#dump_modify   1 element O Cr

compute   Omsd oxygen msd com yes
compute   Crmsd chromium msd com yes
variable  OMSDX equal "c_Omsd[1]"
variable  OMSDY equal "c_Omsd[2]"
variable  OMSDZ equal "c_Omsd[3]"
variable  OMSDAll equal "c_Omsd[4]"

variable  CrMSDX equal "c_Crmsd[1]"
variable  CrMSDY equal "c_Crmsd[2]"
variable  CrMSDZ equal "c_Crmsd[3]"
variable  CrMSDAll equal "c_Crmsd[4]"

thermo          1000
thermo_style    custom step pe ke press lx ly lz temp c_Omsd[1]  c_Omsd[2]  c_Omsd[3]  c_Omsd[4]  c_Crmsd[1]  c_Crmsd[2]  c_Crmsd[3]  c_Crmsd[4]

fix          3 all nvt temp 2000 2000 0.01

run      1000000
PPPM initialization ...
  G vector (1/distance) = 0.308765
  grid = 72 80 75
  stencil order = 5
  estimated absolute RMS force accuracy = 0.00179616
  estimated relative force accuracy = 0.000124736
  3d grid and FFT values/proc = 123082 64800
Step PotEng KinEng Press Lx Ly Lz Temp Omsd[1] Omsd[2] Omsd[3] Omsd[4] Crmsd[1] Crmsd[2] Crmsd[3] Crmsd[4]
0   -1790407.6     15024.46    -2156.898    77.232592    89.181209    81.486324    1994.6164 5.0772997e-29 2.0194839e-28 4.5481851e-28 7.0753989e-28 5.0801153e-29 1.0385484e-28 5.0937605e-29 2.055936e-28
Averages over the last 501 of 1001 rows, steps 500000 to 1000000:
PotEng KinEng Press Lx Ly Lz Temp Omsd[1] Omsd[2] Omsd[3] Omsd[4] Crmsd[1] Crmsd[2] Crmsd[3] Crmsd[4]
-1.79049e+06 15063 -2689.75 77.2326 89.1812 81.4863 1999.73 0.0644352 0.0666508 0.0750518 0.206138 0.042904 0.0428284 0.0535504 0.139283
Loop time of 222495 on 7 procs for 1000000 steps with 58275 atoms

Pair  time (%) = 177608 (79.8254)
Kspce time (%) = 38581.7 (17.3404)
Neigh time (%) = 4553.6 (2.04661)
Comm  time (%) = 1255.63 (0.564341)
Outpt time (%) = 0.425423 (0.000191205)
Other time (%) = 496.148 (0.222992)
